*DIODES_INC_SPICE_MODEL DST3906DJ
*SIMULATOR=SIMETRIX
*ORIGIN=DZSL_DPG_SU
*DATE=31Aug2012
*VERSION=1.1


.MODEL DST3906DJ PNP (IS=6E-15 BF=150 NE=1.45 NF=1 ISE=2E-15 ISC=2E-15 NR=1 BR=5 NC=1.025 CJC=6.49E-12 MJC=0.32 VJC=0.5 CJE=8.819E-12 MJE=0.35 VJE=0.7 RE=.8 RC=.6 IKF=170m NK=.70 VAF=12 XTB=1.5 QUASIMOD=1 RCO=1 EG=1.15)


*                (c)  2012 Diodes Inc
*
*   The copyright in these models  and  the designs embodied belong
*   to Diodes Incorporated (" Zetex ").  They  are  supplied
*   free of charge by Zetex for the purpose of research and design
*   and may be used or copied intact  (including this notice)  for
*   that purpose only.  All other rights are reserved.  The models
*   are believed accurate but no condition  or warranty  as to their
*   merchantability or fitness for purpose is given and no liability
*   in respect of any use is accepted by Diodes Incorporated, its distributors
*   or agents.
*
*   Diodes Zetex Semiconductors Ltd, Zetex Technology Park, Chadderton,
*   Oldham, United Kingdom, OL9 9LL
*